16
0 1
C                  4.85341954    1.92391229   -0.71254410
H                  5.21007396    0.91510229   -0.71254410
H                  5.21009238    2.42831048    0.16110740
H                  5.21009238    2.42831048   -1.58619561
C                  3.31341954    1.92393127   -0.71254410
H                  2.95676562    2.93273955   -0.71058784
H                  2.95674700    1.42122767   -1.58717190
O                  2.83674429    1.24756596    0.45373660
S                  1.16674449    1.24719126    0.45447669
C                  0.37884873    0.56772798    1.62544163
H                  0.45402065   -0.48776491    1.78413615
H                 -0.23664335    1.16111957    2.26883569
C                  0.27903396    2.02156708   -0.87995655
H                  0.53347851    3.06000784   -0.92236841
H                  0.54322155    1.55158006   -1.80419522
H                 -0.77322176    1.91860873   -0.71546498
