26
0 1
P                 -1.48075617   -0.02499156    4.63155561
C                 -0.95781269    0.89186534    3.14888790
H                 -1.35791188    1.88365118    3.18326046
H                  0.11066988    0.93920881    3.11720841
H                 -1.31875128    0.39176727    2.27451655
C                 -3.29817513   -0.10551970    4.68544035
H                 -3.65911372   -0.60561776    3.81106900
H                 -3.60561992   -0.64455095    5.55711862
H                 -3.69827431    0.88626615    4.71981292
C                 -0.80021363   -1.71195440    4.57309012
H                  0.26826895   -1.66461093    4.54141064
H                 -1.10765842   -2.25098565    5.44476840
H                 -1.16115222   -2.21205246    3.69871877
C                 -0.86682324    0.82564254    6.11880408
H                 -0.63721653    0.26385320    7.00003816
C                 -0.67780352    2.35396645    6.10892688
H                 -0.82972536    2.73852532    7.09580794
H                  0.31414348    2.58857303    5.78350270
H                 -1.38649681    2.79668840    5.44060727
C                 -3.04387184    0.29781700    9.52651443
H                 -2.68937164   -0.68940092    9.73777348
H                 -2.69559192    0.97106546   10.28172142
H                 -2.67671681    0.61193576    8.57182778
C                 -4.58377850    0.29760211    9.50956090
H                 -5.11544728   -0.58306782    9.21519924
O                 -5.21682001    1.33316021    9.84189876