8
OptimizedStructure
S -2.1130790549268474 -0.026094521320890542 -2.273648875963845 
S -1.1516967558856035 0.5770757296918397 -0.654022595838809 
S -1.8005600834496323 -0.4952246514341857 1.0516414548645494 
S -0.6845857697065343 0.5317832439583999 2.4664741956766254 
S 1.1935581058352047 -0.34159632249051486 2.3007992319238766 
S 1.9775495185792085 0.5613599444697006 0.6061243331891251 
S 0.992769906705638 -0.6364617332823332 -0.8345608980165122 
S 1.5860441328485673 -0.1708416895920158 -2.6628068458350103 
