9
0 1
C  -0.394530 -1.035780 3.448380 
H  0.040990  -1.742060 4.189320 
H  0.311110  -0.948480 2.590570 
H  -1.368380 -1.448330 3.098580 
C  -0.980520 1.112580  3.469830 
O  -1.433690 2.075071  2.804305 
N  -0.578780 0.209590  4.076400 
N  0.649270  0.117690  7.179440 
N  1.564310  -0.670220 7.848960 
